resources/powernetworkdata/ieee39matpower.txt
 08/20/93 UW ARCHIVE           100.0  1961 W IEEE 30 Bus Test Case
BUS DATA FOLLOWS                            30 ITEMS
   1 Bus 1    132  1  1  3   345    0.0     97.6      0.0      0.0   -16.1   132.0  1.060     0.0     0.0   0.0    0.0        0
   2 Bus 2    132  1  1  2   345  -5.48     0        12.7      0.0    50.0   132.0  1.045    50.0   -40.0   0.0    0.0        0
   3 Bus 3    132  1  1  0   345  -7.96     322       1.2      0.0     0.0   132.0  0.0       0.0     0.0   0.0    0.0        0
   4 Bus 4    132  1  1  0   345  -9.62     500       1.6      0.0     0.0   132.0  0.0       0.0     0.0   0.0    0.0        0
   5 Bus 5    132  1  1  2   345 -14.37     0        19.0      0.0    37.0   132.0  1.010    40.0   -40.0   0.0    0.0        0
   6 Bus 6    132  1  1  0   345 -11.34     0         0.0      0.0     0.0   132.0  0.0       0.0     0.0   0.0    0.0        0
   7 Bus 7    132  1  1  0   345 -13.12     233.8    10.9      0.0     0.0   132.0  0.0       0.0     0.0   0.0    0.0        0
   8 Bus 8    132  1  1  2   345 -12.10     522      30.0      0.0    37.3   132.0  1.010    40.0   -10.0   0.0    0.0        0
   9 Bus 9    1.0  1  1  0   345 -14.38     6.5       0.0      0.0     0.0     1.0  0.0       0.0     0.0   0.0    0.0        0
  10 Bus 10    33  1  1  0   345 -15.97     0         2.0      0.0     0.0    33.0  0.0       0.0     0.0   0.0    0.19       0
  11 Bus 11    11  1  1  2   345 -14.39     0         0.0      0.0    16.2    11.0  1.082    24.0    -6.0   0.0    0.0        0
  12 Bus 12    33  1  1  0   345 -15.24     8.53      7.5      0.0     0.0    33.0  0.0       0.0     0.0   0.0    0.0        0
  13 Bus 13    11  1  1  2   345 -15.24     0         0.0      0.0    10.6    11.0  1.071    24.0    -6.0   0.0    0.0        0
  14 Bus 14    33  1  1  0   345 -16.13     0         1.6      0.0     0.0    33.0  0.0       0.0     0.0   0.0    0.0        0
  15 Bus 15    33  1  1  0   345 -16.22     320       2.5      0.0     0.0    33.0  0.0       0.0     0.0   0.0    0.0        0
  16 Bus 16    33  1  1  0   345 -15.83     329       1.8      0.0     0.0    33.0  0.0       0.0     0.0   0.0    0.0        0
  17 Bus 17    33  1  1  0   345 -16.14     0         5.8      0.0     0.0    33.0  0.0       0.0     0.0   0.0    0.0        0
  18 Bus 18    33  1  1  0   345 -16.82     158       0.9      0.0     0.0    33.0  0.0       0.0     0.0   0.0    0.0        0
  19 Bus 19    33  1  1  0   345 -17.00     0         3.4      0.0     0.0    33.0  0.0       0.0     0.0   0.0    0.0        0
  20 Bus 20    33  1  1  0   345 -16.80     680       0.7      0.0     0.0    33.0  0.0       0.0     0.0   0.0    0.0        0
  21 Bus 21    33  1  1  0   345 -16.42     274      11.2      0.0     0.0    33.0  0.0       0.0     0.0   0.0    0.0        0
  22 Bus 22    33  1  1  0   345 -16.41     0         0.0      0.0     0.0    33.0  0.0       0.0     0.0   0.0    0.0        0
  23 Bus 23    33  1  1  0   345 -16.61     247.5     1.6      0.0     0.0    33.0  0.0       0.0     0.0   0.0    0.0        0
  24 Bus 24    33  1  1  0   345 -16.78     308.6     6.7      0.0     0.0    33.0  0.0       0.0     0.0   0.0    0.043      0
  25 Bus 25    33  1  1  0   345 -16.35     224       0.0      0.0     0.0    33.0  0.0       0.0     0.0   0.0    0.0        0
  26 Bus 26    33  1  1  0   345 -16.77     139       2.3      0.0     0.0    33.0  0.0       0.0     0.0   0.0    0.0        0
  27 Bus 27    33  1  1  0   345 -15.82     281       0.0      0.0     0.0    33.0  0.0       0.0     0.0   0.0    0.0        0
  28 Bus 28   132  1  1  0   345 -11.97     206       0.0      0.0     0.0   132.0  0.0       0.0     0.0   0.0    0.0        0
  29 Bus 29    33  1  1  0   345 -17.06     283.5     0.9      0.0     0.0    33.0  0.0       0.0     0.0   0.0    0.0        0
  30 Bus 30    33  1  1  0   345 -17.94     0         1.9     1040     0.0    33.0  0.0       0.0     0.0   0.0    0.0        0
  31 Bus 31    33  1  1  0   345 -17.94     9.2       1.9      646     0.0    33.0  0.0       0.0     0.0   0.0    0.0        0
  32 Bus 32    33  1  1  0   345 -17.94     0         1.9      725     0.0    33.0  0.0       0.0     0.0   0.0    0.0        0
  33 Bus 33    33  1  1  0   345 -17.94     0         1.9      652     0.0    33.0  0.0       0.0     0.0   0.0    0.0        0
  34 Bus 34    33  1  1  0   345 -17.94     0         1.9      508     0.0    33.0  0.0       0.0     0.0   0.0    0.0        0
  35 Bus 35    33  1  1  0   345 -17.94     0         1.9      687     0.0    33.0  0.0       0.0     0.0   0.0    0.0        0
  36 Bus 36    33  1  1  0   345 -17.94     0         1.9      580     0.0    33.0  0.0       0.0     0.0   0.0    0.0        0
  37 Bus 37    33  1  1  0   345 -17.94     0         1.9      564     0.0    33.0  0.0       0.0     0.0   0.0    0.0        0
  38 Bus 38    33  1  1  0   345 -17.94     0         1.9      865     0.0    33.0  0.0       0.0     0.0   0.0    0.0        0
  39 Bus 39    33  1  1  0   345 -17.94     1104      1.9     1100     0.0    33.0  0.0       0.0     0.0   0.0    0.0        0
-999
BRANCH DATA FOLLOWS                         41 ITEMS
  1    2   1  1 1 0  0.0035    0.0411      0.0528  600      0     0    0 0  0.0       0.0 0.0    0.0     0.0    0.0   0.0
  1    39  1  1 1 0  0.001     0.025       0.0408  1000     0     0    0 0  0.0       0.0 0.0    0.0     0.0    0.0   0.0
  2    3   1  1 1 0  0.0013    0.0151      0.0368  500      0     0    0 0  0.0       0.0 0.0    0.0     0.0    0.0   0.0
  2    25  1  1 1 0  0.007     0.0086      0.0084  500      0     0    0 0  0.0       0.0 0.0    0.0     0.0    0.0   0.0
  2    30  1  1 1 0  0         0.0181      0.0418  900      0     0    0 0  0.0       0.0 0.0    0.0     0.0    0.0   0.0
  3    4   1  1 1 0  0.0013    0.0213      0.0374  500      0     0    0 0  0.0       0.0 0.0    0.0     0.0    0.0   0.0
  3    18  1  1 1 0  0.0011    0.0133      0.0090  500      0     0    0 0  0.0       0.0 0.0    0.0     0.0    0.0   0.0
  4    5   1  1 1 0  0.0008    0.0128      0.0204  600      0     0    0 0  0.0       0.0 0.0    0.0     0.0    0.0   0.0
  4    14  1  1 1 0  0.0008    0.0129      0.0170  500      0     0    0 0  0.0       0.0 0.0    0.0     0.0    0.0   0.0
  5    6   1  1 1 0  0.0002    0.0026      0.0090  1200     0     0    0 0  0.0       0.0 0.0    0.0     0.0    0.0   0.0
  5    8   1  1 1 0  0.0008    0.0112      0.0     900      0     0    0 0  0.978     0.0 0.0    0.0     0.0    0.0   0.0
  6    7   1  1 1 0  0.0006    0.0092      0.0     900      0     0    0 0  0.969     0.0 0.0    0.0     0.0    0.0   0.0
  6    11  1  1 1 0  0.0007    0.0082      0.0     480      0     0    0 0  0.0       0.0 0.0    0.0     0.0    0.0   0.0
  6    31  1  1 1 0  0         0.025       0.0     1800     0     0    0 0  0.0       0.0 0.0    0.0     0.0    0.0   0.0
  7    8   1  1 1 0  0.0004    0.0046      0.0     900      0     0    0 0  0.932     0.0 0.0    0.0     0.0    0.0   0.0
  8    9   1  1 1 0  0.0023    0.0363      0.0     900      0     0    0 0  0.0       0.0 0.0    0.0     0.0    0.0   0.0
  9    39  1  1 1 0  0.001     0.025       0.0     900      0     0    0 0  0.0       0.0 0.0    0.0     0.0    0.0   0.0
  10   11  1  1 1 0  0.0004    0.0043      0.0     600      0     0    0 0  0.0       0.0 0.0    0.0     0.0    0.0   0.0
  10   13  1  1 1 0  0.0004    0.0043      0.0     600      0     0    0 0  0.0       0.0 0.0    0.0     0.0    0.0   0.0
  10   32  1  1 1 0  0         0.02        0.0     900      0     0    0 0  0.0       0.0 0.0    0.0     0.0    0.0   0.0
  12   11  1  1 1 0  0.0016    0.0435      0.0     500      0     0    0 0  0.0       0.0 0.0    0.0     0.0    0.0   0.0
  12   13  1  1 1 0  0.0016    0.0435      0.0     500      0     0    0 0  0.0       0.0 0.0    0.0     0.0    0.0   0.0
  13   14  1  1 1 0  0.0009    0.0101      0.0     600      0     0    0 0  0.0       0.0 0.0    0.0     0.0    0.0   0.0
  14   15  1  1 1 0  0.0018    0.0217      0.0     600      0     0    0 0  0.0       0.0 0.0    0.0     0.0    0.0   0.0
  15   16  1  1 1 0  0.0009    0.0094      0.0     600      0     0    0 0  0.0       0.0 0.0    0.0     0.0    0.0   0.0
  16   17  1  1 1 0  0.0007    0.0089      0.0     600      0     0    0 0  0.0       0.0 0.0    0.0     0.0    0.0   0.0
  16   19  1  1 1 0  0.0016    0.0195      0.0     600      0     0    0 0  0.0       0.0 0.0    0.0     0.0    0.0   0.0
  16   21  1  1 1 0  0.0008    0.0135      0.0     600      0     0    0 0  0.0       0.0 0.0    0.0     0.0    0.0   0.0
  16   24  1  1 1 0  0.0003    0.0059      0.0     600      0     0    0 0  0.0       0.0 0.0    0.0     0.0    0.0   0.0
  17   18  1  1 1 0  0.0007    0.0082      0.0     600      0     0    0 0  0.0       0.0 0.0    0.0     0.0    0.0   0.0
  17   27  1  1 1 0  0.0013    0.0173      0.0     600      0     0    0 0  0.0       0.0 0.0    0.0     0.0    0.0   0.0
  19   20  1  1 1 0  0.0007    0.0138      0.0     900      0     0    0 0  0.0       0.0 0.0    0.0     0.0    0.0   0.0
  19   33  1  1 1 0  0.0007    0.0142      0.0     900      0     0    0 0  0.0       0.0 0.0    0.0     0.0    0.0   0.0
  20   34  1  1 1 0  0.0009    0.018       0.0     900      0     0    0 0  0.0       0.0 0.0    0.0     0.0    0.0   0.0
  21   22  1  1 1 0  0.0008    0.014       0.0     900      0     0    0 0  0.0       0.0 0.0    0.0     0.0    0.0   0.0
  22   23  1  1 1 0  0.0006    0.0096      0.0     600      0     0    0 0  0.968     0.0 0.0    0.0     0.0    0.0   0.0
  22   35  1  1 1 0  0         0.0143      0.0     900      0     0    0 0  0.0       0.0 0.0    0.0     0.0    0.0   0.0
  23   24  1  1 1 0  0.0022    0.035       0.0     600      0     0    0 0  0.0       0.0 0.0    0.0     0.0    0.0   0.0
  23   36  1  1 1 0  0.0005    0.0272      0.0     900      0     0    0 0  0.0       0.0 0.0    0.0     0.0    0.0   0.0
  25   26  1  1 1 0  0.0032    0.0323      0.0428  600      0     0    0 0  0.0       0.0 0.0    0.0     0.0    0.0   0.0
  25   37  1  1 1 0  0.0006    0.0232      0.0130  900      0     0    0 0  0.0       0.0 0.0    0.0     0.0    0.0   0.0
  26   27  1  1 1 0  0.0014    0.0147      0.0130  600      0     0    0 0  0.0       0.0 0.0    0.0     0.0    0.0   0.0
  26   28  1  1 1 0  0.0043    0.0474      0.0130  600      0     0    0 0  0.0       0.0 0.0    0.0     0.0    0.0   0.0
  26   29  1  1 1 0  0.0057    0.0625      0.0130  600      0     0    0 0  0.0       0.0 0.0    0.0     0.0    0.0   0.0
  28   29  1  1 1 0  0.0014    0.0151      0.0130  600      0     0    0 0  0.0       0.0 0.0    0.0     0.0    0.0   0.0
  29   38  1  1 1 0  0.0008    0.0156      0.0130  1200     0     0    0 0  0.0       0.0 0.0    0.0     0.0    0.0   0.0
-999
LOSS ZONES FOLLOWS                     1 ITEMS
  1 IEEE 30 BUS
-99
INTERCHANGE DATA FOLLOWS                 1 ITEMS
-9
 1    2 Claytor  132    0.0  999.99  IEEE30  IEEE 30 Bus Test Case
TIE LINES FOLLOWS                     0 ITEMS
-999
END OF DATA
